*SPEF "ieee 1481-1999"
*DESIGN "vedic8x8"
*DATE "12:18:13 Monday January 06, 2025"
*VENDOR "The OpenROAD Project"
*PROGRAM "OpenROAD"
*VERSION "v2.0-15833-ge3b4fc0c9"
*DESIGN_FLOW "NAME_SCOPE LOCAL" "PIN_CAP NONE"
*DIVIDER /
*DELIMITER :
*BUS_DELIMITER []
*T_UNIT 1 NS
*C_UNIT 1 PF
*R_UNIT 1 OHM
*L_UNIT 1 HENRY

*NAME_MAP
*1 _000_
*2 _001_
*3 _002_
*4 _003_
*5 _004_
*6 _005_
*7 _006_
*8 _007_
*9 _008_
*10 _009_
*11 _010_
*12 _011_
*13 _012_
*14 _013_
*15 _014_
*16 _015_
*17 _016_
*18 _017_
*19 _018_
*20 _019_
*21 _020_
*22 _021_
*23 _022_
*24 _023_
*25 _024_
*26 _025_
*27 _026_
*28 _027_
*29 _028_
*30 _029_
*31 _030_
*32 _031_
*33 _032_
*34 _033_
*35 _034_
*36 _035_
*37 _036_
*38 _037_
*39 _038_
*40 _039_
*41 _040_
*42 _041_
*43 _042_
*44 _043_
*45 _044_
*46 _045_
*47 _046_
*48 _047_
*49 _048_
*50 _049_
*51 _050_
*52 _051_
*53 _052_
*54 _053_
*55 _054_
*56 _055_
*57 _056_
*58 _057_
*59 _058_
*60 _059_
*61 _060_
*62 _061_
*63 _062_
*64 _063_
*65 _064_
*66 _065_
*67 _066_
*68 _067_
*69 _068_
*70 _069_
*71 _070_
*72 _071_
*73 _072_
*74 _073_
*75 _074_
*76 _075_
*77 _076_
*78 _077_
*79 _078_
*80 _079_
*81 _080_
*82 _081_
*83 _082_
*84 _083_
*85 _084_
*86 _085_
*87 _086_
*88 _087_
*89 _088_
*90 _089_
*91 _090_
*92 _091_
*93 _092_
*94 _093_
*95 _094_
*96 _095_
*97 _096_
*98 _097_
*99 _098_
*100 _099_
*101 a[0]
*102 a[1]
*103 a[2]
*104 a[3]
*105 a[4]
*106 a[5]
*107 a[6]
*108 a[7]
*109 b[0]
*110 b[1]
*111 b[2]
*112 b[3]
*113 b[4]
*114 b[5]
*115 b[6]
*116 b[7]
*117 c1
*118 c1_s1
*119 c1_s2
*120 c2
*121 c2_s2
*122 clk
*123 ground
*124 ov1
*125 ov2
*126 ov3
*127 ov4
*128 overflow
*129 prod[0]
*130 prod[10]
*131 prod[11]
*132 prod[12]
*133 prod[13]
*134 prod[14]
*135 prod[15]
*136 prod[1]
*137 prod[2]
*138 prod[3]
*139 prod[4]
*140 prod[5]
*141 prod[6]
*142 prod[7]
*143 prod[8]
*144 prod[9]
*145 prodm0[0]
*146 prodm0[1]
*147 prodm0[2]
*148 prodm0[3]
*149 prodm0[4]
*150 prodm0[5]
*151 prodm0[6]
*152 prodm0[7]
*153 prodm0_s0[0]
*154 prodm0_s0[1]
*155 prodm0_s0[2]
*156 prodm0_s0[3]
*157 prodm0_s0[4]
*158 prodm0_s0[5]
*159 prodm0_s0[6]
*160 prodm0_s0[7]
*161 prodm0_s1[0]
*162 prodm0_s1[1]
*163 prodm0_s1[2]
*164 prodm0_s1[3]
*165 prodm0_s1[4]
*166 prodm0_s1[5]
*167 prodm0_s1[6]
*168 prodm0_s1[7]
*169 prodm0_s2[0]
*170 prodm0_s2[1]
*171 prodm0_s2[2]
*172 prodm0_s2[3]
*173 prodm0_s2[4]
*174 prodm0_s2[5]
*175 prodm0_s2[6]
*176 prodm0_s2[7]
*177 prodm1[0]
*178 prodm1[1]
*179 prodm1[2]
*180 prodm1[3]
*181 prodm1[4]
*182 prodm1[5]
*183 prodm1[6]
*184 prodm1[7]
*185 prodm1_s0[0]
*186 prodm1_s0[1]
*187 prodm1_s0[2]
*188 prodm1_s0[3]
*189 prodm1_s0[4]
*190 prodm1_s0[5]
*191 prodm1_s0[6]
*192 prodm1_s0[7]
*193 prodm2[0]
*194 prodm2[1]
*195 prodm2[2]
*196 prodm2[3]
*197 prodm2[4]
*198 prodm2[5]
*199 prodm2[6]
*200 prodm2[7]
*201 prodm2_s0[0]
*202 prodm2_s0[1]
*203 prodm2_s0[2]
*204 prodm2_s0[3]
*205 prodm2_s0[4]
*206 prodm2_s0[5]
*207 prodm2_s0[6]
*208 prodm2_s0[7]
*209 prodm3[0]
*210 prodm3[1]
*211 prodm3[2]
*212 prodm3[3]
*213 prodm3[4]
*214 prodm3[5]
*215 prodm3[6]
*216 prodm3[7]
*217 prodm3_s0[0]
*218 prodm3_s0[1]
*219 prodm3_s0[2]
*220 prodm3_s0[3]
*221 prodm3_s0[4]
*222 prodm3_s0[5]
*223 prodm3_s0[6]
*224 prodm3_s0[7]
*225 prodm3_s1[0]
*226 prodm3_s1[1]
*227 prodm3_s1[2]
*228 prodm3_s1[3]
*229 prodm3_s1[4]
*230 prodm3_s1[5]
*231 prodm3_s1[6]
*232 prodm3_s1[7]
*233 prodm3_s2[0]
*234 prodm3_s2[1]
*235 prodm3_s2[2]
*236 prodm3_s2[3]
*237 prodm3_s2[4]
*238 prodm3_s2[5]
*239 prodm3_s2[6]
*240 prodm3_s2[7]
*241 sum_s1[0]
*242 sum_s1[1]
*243 sum_s1[2]
*244 sum_s1[3]
*245 sum_s1[4]
*246 sum_s1[5]
*247 sum_s1[6]
*248 sum_s1[7]
*249 sum_s2[0]
*250 sum_s2[1]
*251 sum_s2[2]
*252 sum_s2[3]
*253 sum_s2[4]
*254 sum_s2[5]
*255 sum_s2[6]
*256 sum_s2[7]
*257 sums1[0]
*258 sums1[1]
*259 sums1[2]
*260 sums1[3]
*261 sums1[4]
*262 sums1[5]
*263 sums1[6]
*264 sums1[7]
*265 sums2[0]
*266 sums2[1]
*267 sums2[2]
*268 sums2[3]
*269 sums2[4]
*270 sums2[5]
*271 sums2[6]
*272 sums2[7]
*273 sums3[0]
*274 sums3[1]
*275 sums3[2]
*276 sums3[3]
*277 sums3[4]
*278 sums3[5]
*279 sums3[6]
*280 sums3[7]
*281 M0/c1
*282 M0/c2
*283 M0/cnet
*284 M0/prodm0[2]
*285 M0/prodm0[3]
*286 M0/prodm1[0]
*287 M0/prodm1[1]
*288 M0/prodm1[2]
*289 M0/prodm1[3]
*290 M0/prodm2[0]
*291 M0/prodm2[1]
*292 M0/prodm2[2]
*293 M0/prodm2[3]
*294 M0/prodm3[0]
*295 M0/prodm3[1]
*296 M0/prodm3[2]
*297 M0/prodm3[3]
*298 M0/sums1[0]
*299 M0/sums1[1]
*300 M0/sums1[2]
*301 M0/sums1[3]
*302 M0/sums2[2]
*303 M0/sums2[3]
*304 M0/M0/a0b1
*305 M0/M0/a1b0
*306 M0/M0/a1b1
*307 M0/M0/carry
*308 M0/M1/a0b1
*309 M0/M1/a1b0
*310 M0/M1/a1b1
*311 M0/M1/carry
*312 M0/M2/a0b1
*313 M0/M2/a1b0
*314 M0/M2/a1b1
*315 M0/M2/carry
*316 M0/M3/a0b1
*317 M0/M3/a1b0
*318 M0/M3/a1b1
*319 M0/M3/carry
*320 M0/stage1/_00_
*321 M0/stage1/_01_
*322 M0/stage1/_02_
*323 M0/stage1/_03_
*324 M0/stage1/carry0[0]
*325 M0/stage1/carry0[1]
*326 M0/stage1/carry0[2]
*327 M0/stage1/carry0[3]
*328 M0/stage1/carry1[0]
*329 M0/stage1/carry1[1]
*330 M0/stage1/carry1[2]
*331 M0/stage1/carry1[3]
*332 M0/stage1/sum0[0]
*333 M0/stage1/sum0[1]
*334 M0/stage1/sum0[2]
*335 M0/stage1/sum0[3]
*336 M0/stage1/sum1[0]
*337 M0/stage1/sum1[1]
*338 M0/stage1/sum1[2]
*339 M0/stage1/sum1[3]
*340 M0/stage1/FA1_0/ha1_carry
*341 M0/stage1/FA1_0/ha1_sum
*342 M0/stage1/FA1_0/ha2_carry
*343 M0/stage1/gen_csa\[1\]\.FA0/ha1_carry
*344 M0/stage1/gen_csa\[1\]\.FA0/ha1_sum
*345 M0/stage1/gen_csa\[1\]\.FA0/ha2_carry
*346 M0/stage1/gen_csa\[1\]\.FA1/ha1_carry
*347 M0/stage1/gen_csa\[1\]\.FA1/ha1_sum
*348 M0/stage1/gen_csa\[1\]\.FA1/ha2_carry
*349 M0/stage1/gen_csa\[2\]\.FA0/ha1_carry
*350 M0/stage1/gen_csa\[2\]\.FA0/ha1_sum
*351 M0/stage1/gen_csa\[2\]\.FA0/ha2_carry
*352 M0/stage1/gen_csa\[2\]\.FA1/ha1_carry
*353 M0/stage1/gen_csa\[2\]\.FA1/ha1_sum
*354 M0/stage1/gen_csa\[2\]\.FA1/ha2_carry
*355 M0/stage1/gen_csa\[3\]\.FA0/ha1_carry
*356 M0/stage1/gen_csa\[3\]\.FA0/ha1_sum
*357 M0/stage1/gen_csa\[3\]\.FA0/ha2_carry
*358 M0/stage1/gen_csa\[3\]\.FA1/ha1_carry
*359 M0/stage1/gen_csa\[3\]\.FA1/ha1_sum
*360 M0/stage1/gen_csa\[3\]\.FA1/ha2_carry
*361 M0/stage2/_00_
*362 M0/stage2/_01_
*363 M0/stage2/_02_
*364 M0/stage2/_03_
*365 M0/stage2/carry0[0]
*366 M0/stage2/carry0[1]
*367 M0/stage2/carry0[2]
*368 M0/stage2/carry0[3]
*369 M0/stage2/carry1[0]
*370 M0/stage2/carry1[1]
*371 M0/stage2/carry1[2]
*372 M0/stage2/carry1[3]
*373 M0/stage2/sum0[0]
*374 M0/stage2/sum0[1]
*375 M0/stage2/sum0[2]
*376 M0/stage2/sum0[3]
*377 M0/stage2/sum1[0]
*378 M0/stage2/sum1[1]
*379 M0/stage2/sum1[2]
*380 M0/stage2/sum1[3]
*381 M0/stage2/FA1_0/ha1_carry
*382 M0/stage2/FA1_0/ha1_sum
*383 M0/stage2/FA1_0/ha2_carry
*384 M0/stage2/gen_csa\[1\]\.FA0/ha1_carry
*385 M0/stage2/gen_csa\[1\]\.FA0/ha1_sum
*386 M0/stage2/gen_csa\[1\]\.FA0/ha2_carry
*387 M0/stage2/gen_csa\[1\]\.FA1/ha1_carry
*388 M0/stage2/gen_csa\[1\]\.FA1/ha1_sum
*389 M0/stage2/gen_csa\[1\]\.FA1/ha2_carry
*390 M0/stage2/gen_csa\[2\]\.FA0/ha1_carry
*391 M0/stage2/gen_csa\[2\]\.FA0/ha1_sum
*392 M0/stage2/gen_csa\[2\]\.FA0/ha2_carry
*393 M0/stage2/gen_csa\[2\]\.FA1/ha1_carry
*394 M0/stage2/gen_csa\[2\]\.FA1/ha1_sum
*395 M0/stage2/gen_csa\[2\]\.FA1/ha2_carry
*396 M0/stage2/gen_csa\[3\]\.FA0/ha1_carry
*397 M0/stage2/gen_csa\[3\]\.FA0/ha1_sum
*398 M0/stage2/gen_csa\[3\]\.FA0/ha2_carry
*399 M0/stage2/gen_csa\[3\]\.FA1/ha1_carry
*400 M0/stage2/gen_csa\[3\]\.FA1/ha1_sum
*401 M0/stage2/gen_csa\[3\]\.FA1/ha2_carry
*402 M0/stage3/_00_
*403 M0/stage3/_01_
*404 M0/stage3/_02_
*405 M0/stage3/_03_
*406 M0/stage3/carry0[0]
*407 M0/stage3/carry0[1]
*408 M0/stage3/carry0[2]
*409 M0/stage3/carry0[3]
*410 M0/stage3/carry1[0]
*411 M0/stage3/carry1[1]
*412 M0/stage3/carry1[2]
*413 M0/stage3/carry1[3]
*414 M0/stage3/sum0[0]
*415 M0/stage3/sum0[1]
*416 M0/stage3/sum0[2]
*417 M0/stage3/sum0[3]
*418 M0/stage3/sum1[0]
*419 M0/stage3/sum1[1]
*420 M0/stage3/sum1[2]
*421 M0/stage3/sum1[3]
*422 M0/stage3/FA1_0/ha1_carry
*423 M0/stage3/FA1_0/ha1_sum
*424 M0/stage3/FA1_0/ha2_carry
*425 M0/stage3/gen_csa\[1\]\.FA0/ha1_carry
*426 M0/stage3/gen_csa\[1\]\.FA0/ha1_sum
*427 M0/stage3/gen_csa\[1\]\.FA0/ha2_carry
*428 M0/stage3/gen_csa\[1\]\.FA1/ha1_carry
*429 M0/stage3/gen_csa\[1\]\.FA1/ha1_sum
*430 M0/stage3/gen_csa\[1\]\.FA1/ha2_carry
*431 M0/stage3/gen_csa\[2\]\.FA0/ha1_carry
*432 M0/stage3/gen_csa\[2\]\.FA0/ha1_sum
*433 M0/stage3/gen_csa\[2\]\.FA0/ha2_carry
*434 M0/stage3/gen_csa\[2\]\.FA1/ha1_carry
*435 M0/stage3/gen_csa\[2\]\.FA1/ha1_sum
*436 M0/stage3/gen_csa\[2\]\.FA1/ha2_carry
*437 M0/stage3/gen_csa\[3\]\.FA0/ha1_carry
*438 M0/stage3/gen_csa\[3\]\.FA0/ha1_sum
*439 M0/stage3/gen_csa\[3\]\.FA0/ha2_carry
*440 M0/stage3/gen_csa\[3\]\.FA1/ha1_carry
*441 M0/stage3/gen_csa\[3\]\.FA1/ha1_sum
*442 M0/stage3/gen_csa\[3\]\.FA1/ha2_carry
*443 M1/c1
*444 M1/c2
*445 M1/cnet
*446 M1/prodm0[2]
*447 M1/prodm0[3]
*448 M1/prodm1[0]
*449 M1/prodm1[1]
*450 M1/prodm1[2]
*451 M1/prodm1[3]
*452 M1/prodm2[0]
*453 M1/prodm2[1]
*454 M1/prodm2[2]
*455 M1/prodm2[3]
*456 M1/prodm3[0]
*457 M1/prodm3[1]
*458 M1/prodm3[2]
*459 M1/prodm3[3]
*460 M1/sums1[0]
*461 M1/sums1[1]
*462 M1/sums1[2]
*463 M1/sums1[3]
*464 M1/sums2[2]
*465 M1/sums2[3]
*466 M1/M0/a0b1
*467 M1/M0/a1b0
*468 M1/M0/a1b1
*469 M1/M0/carry
*470 M1/M1/a0b1
*471 M1/M1/a1b0
*472 M1/M1/a1b1
*473 M1/M1/carry
*474 M1/M2/a0b1
*475 M1/M2/a1b0
*476 M1/M2/a1b1
*477 M1/M2/carry
*478 M1/M3/a0b1
*479 M1/M3/a1b0
*480 M1/M3/a1b1
*481 M1/M3/carry
*482 M1/stage1/_00_
*483 M1/stage1/_01_
*484 M1/stage1/_02_
*485 M1/stage1/_03_
*486 M1/stage1/carry0[0]
*487 M1/stage1/carry0[1]
*488 M1/stage1/carry0[2]
*489 M1/stage1/carry0[3]
*490 M1/stage1/carry1[0]
*491 M1/stage1/carry1[1]
*492 M1/stage1/carry1[2]
*493 M1/stage1/carry1[3]
*494 M1/stage1/sum0[0]
*495 M1/stage1/sum0[1]
*496 M1/stage1/sum0[2]
*497 M1/stage1/sum0[3]
*498 M1/stage1/sum1[0]
*499 M1/stage1/sum1[1]
*500 M1/stage1/sum1[2]
*501 M1/stage1/sum1[3]
*502 M1/stage1/FA1_0/ha1_carry
*503 M1/stage1/FA1_0/ha1_sum
*504 M1/stage1/FA1_0/ha2_carry
*505 M1/stage1/gen_csa\[1\]\.FA0/ha1_carry
*506 M1/stage1/gen_csa\[1\]\.FA0/ha1_sum
*507 M1/stage1/gen_csa\[1\]\.FA0/ha2_carry
*508 M1/stage1/gen_csa\[1\]\.FA1/ha1_carry
*509 M1/stage1/gen_csa\[1\]\.FA1/ha1_sum
*510 M1/stage1/gen_csa\[1\]\.FA1/ha2_carry
*511 M1/stage1/gen_csa\[2\]\.FA0/ha1_carry
*512 M1/stage1/gen_csa\[2\]\.FA0/ha1_sum
*513 M1/stage1/gen_csa\[2\]\.FA0/ha2_carry
*514 M1/stage1/gen_csa\[2\]\.FA1/ha1_carry
*515 M1/stage1/gen_csa\[2\]\.FA1/ha1_sum
*516 M1/stage1/gen_csa\[2\]\.FA1/ha2_carry
*517 M1/stage1/gen_csa\[3\]\.FA0/ha1_carry
*518 M1/stage1/gen_csa\[3\]\.FA0/ha1_sum
*519 M1/stage1/gen_csa\[3\]\.FA0/ha2_carry
*520 M1/stage1/gen_csa\[3\]\.FA1/ha1_carry
*521 M1/stage1/gen_csa\[3\]\.FA1/ha1_sum
*522 M1/stage1/gen_csa\[3\]\.FA1/ha2_carry
*523 M1/stage2/_00_
*524 M1/stage2/_01_
*525 M1/stage2/_02_
*526 M1/stage2/_03_
*527 M1/stage2/carry0[0]
*528 M1/stage2/carry0[1]
*529 M1/stage2/carry0[2]
*530 M1/stage2/carry0[3]
*531 M1/stage2/carry1[0]
*532 M1/stage2/carry1[1]
*533 M1/stage2/carry1[2]
*534 M1/stage2/carry1[3]
*535 M1/stage2/sum0[0]
*536 M1/stage2/sum0[1]
*537 M1/stage2/sum0[2]
*538 M1/stage2/sum0[3]
*539 M1/stage2/sum1[0]
*540 M1/stage2/sum1[1]
*541 M1/stage2/sum1[2]
*542 M1/stage2/sum1[3]
*543 M1/stage2/FA1_0/ha1_carry
*544 M1/stage2/FA1_0/ha1_sum
*545 M1/stage2/FA1_0/ha2_carry
*546 M1/stage2/gen_csa\[1\]\.FA0/ha1_carry
*547 M1/stage2/gen_csa\[1\]\.FA0/ha1_sum
*548 M1/stage2/gen_csa\[1\]\.FA0/ha2_carry
*549 M1/stage2/gen_csa\[1\]\.FA1/ha1_carry
*550 M1/stage2/gen_csa\[1\]\.FA1/ha1_sum
*551 M1/stage2/gen_csa\[1\]\.FA1/ha2_carry
*552 M1/stage2/gen_csa\[2\]\.FA0/ha1_carry
*553 M1/stage2/gen_csa\[2\]\.FA0/ha1_sum
*554 M1/stage2/gen_csa\[2\]\.FA0/ha2_carry
*555 M1/stage2/gen_csa\[2\]\.FA1/ha1_carry
*556 M1/stage2/gen_csa\[2\]\.FA1/ha1_sum
*557 M1/stage2/gen_csa\[2\]\.FA1/ha2_carry
*558 M1/stage2/gen_csa\[3\]\.FA0/ha1_carry
*559 M1/stage2/gen_csa\[3\]\.FA0/ha1_sum
*560 M1/stage2/gen_csa\[3\]\.FA0/ha2_carry
*561 M1/stage2/gen_csa\[3\]\.FA1/ha1_carry
*562 M1/stage2/gen_csa\[3\]\.FA1/ha1_sum
*563 M1/stage2/gen_csa\[3\]\.FA1/ha2_carry
*564 M1/stage3/_00_
*565 M1/stage3/_01_
*566 M1/stage3/_02_
*567 M1/stage3/_03_
*568 M1/stage3/carry0[0]
*569 M1/stage3/carry0[1]
*570 M1/stage3/carry0[2]
*571 M1/stage3/carry0[3]
*572 M1/stage3/carry1[0]
*573 M1/stage3/carry1[1]
*574 M1/stage3/carry1[2]
*575 M1/stage3/carry1[3]
*576 M1/stage3/sum0[0]
*577 M1/stage3/sum0[1]
*578 M1/stage3/sum0[2]
*579 M1/stage3/sum0[3]
*580 M1/stage3/sum1[0]
*581 M1/stage3/sum1[1]
*582 M1/stage3/sum1[2]
*583 M1/stage3/sum1[3]
*584 M1/stage3/FA1_0/ha1_carry
*585 M1/stage3/FA1_0/ha1_sum
*586 M1/stage3/FA1_0/ha2_carry
*587 M1/stage3/gen_csa\[1\]\.FA0/ha1_carry
*588 M1/stage3/gen_csa\[1\]\.FA0/ha1_sum
*589 M1/stage3/gen_csa\[1\]\.FA0/ha2_carry
*590 M1/stage3/gen_csa\[1\]\.FA1/ha1_carry
*591 M1/stage3/gen_csa\[1\]\.FA1/ha1_sum
*592 M1/stage3/gen_csa\[1\]\.FA1/ha2_carry
*593 M1/stage3/gen_csa\[2\]\.FA0/ha1_carry
*594 M1/stage3/gen_csa\[2\]\.FA0/ha1_sum
*595 M1/stage3/gen_csa\[2\]\.FA0/ha2_carry
*596 M1/stage3/gen_csa\[2\]\.FA1/ha1_carry
*597 M1/stage3/gen_csa\[2\]\.FA1/ha1_sum
*598 M1/stage3/gen_csa\[2\]\.FA1/ha2_carry
*599 M1/stage3/gen_csa\[3\]\.FA0/ha1_carry
*600 M1/stage3/gen_csa\[3\]\.FA0/ha1_sum
*601 M1/stage3/gen_csa\[3\]\.FA0/ha2_carry
*602 M1/stage3/gen_csa\[3\]\.FA1/ha1_carry
*603 M1/stage3/gen_csa\[3\]\.FA1/ha1_sum
*604 M1/stage3/gen_csa\[3\]\.FA1/ha2_carry
*605 M2/c1
*606 M2/c2
*607 M2/cnet
*608 M2/prodm0[2]
*609 M2/prodm0[3]
*610 M2/prodm1[0]
*611 M2/prodm1[1]
*612 M2/prodm1[2]
*613 M2/prodm1[3]
*614 M2/prodm2[0]
*615 M2/prodm2[1]
*616 M2/prodm2[2]
*617 M2/prodm2[3]
*618 M2/prodm3[0]
*619 M2/prodm3[1]
*620 M2/prodm3[2]
*621 M2/prodm3[3]
*622 M2/sums1[0]
*623 M2/sums1[1]
*624 M2/sums1[2]
*625 M2/sums1[3]
*626 M2/sums2[2]
*627 M2/sums2[3]
*628 M2/M0/a0b1
*629 M2/M0/a1b0
*630 M2/M0/a1b1
*631 M2/M0/carry
*632 M2/M1/a0b1
*633 M2/M1/a1b0
*634 M2/M1/a1b1
*635 M2/M1/carry
*636 M2/M2/a0b1
*637 M2/M2/a1b0
*638 M2/M2/a1b1
*639 M2/M2/carry
*640 M2/M3/a0b1
*641 M2/M3/a1b0
*642 M2/M3/a1b1
*643 M2/M3/carry
*644 M2/stage1/_00_
*645 M2/stage1/_01_
*646 M2/stage1/_02_
*647 M2/stage1/_03_
*648 M2/stage1/carry0[0]
*649 M2/stage1/carry0[1]
*650 M2/stage1/carry0[2]
*651 M2/stage1/carry0[3]
*652 M2/stage1/carry1[0]
*653 M2/stage1/carry1[1]
*654 M2/stage1/carry1[2]
*655 M2/stage1/carry1[3]
*656 M2/stage1/sum0[0]
*657 M2/stage1/sum0[1]
*658 M2/stage1/sum0[2]
*659 M2/stage1/sum0[3]
*660 M2/stage1/sum1[0]
*661 M2/stage1/sum1[1]
*662 M2/stage1/sum1[2]
*663 M2/stage1/sum1[3]
*664 M2/stage1/FA1_0/ha1_carry
*665 M2/stage1/FA1_0/ha1_sum
*666 M2/stage1/FA1_0/ha2_carry
*667 M2/stage1/gen_csa\[1\]\.FA0/ha1_carry
*668 M2/stage1/gen_csa\[1\]\.FA0/ha1_sum
*669 M2/stage1/gen_csa\[1\]\.FA0/ha2_carry
*670 M2/stage1/gen_csa\[1\]\.FA1/ha1_carry
*671 M2/stage1/gen_csa\[1\]\.FA1/ha1_sum
*672 M2/stage1/gen_csa\[1\]\.FA1/ha2_carry
*673 M2/stage1/gen_csa\[2\]\.FA0/ha1_carry
*674 M2/stage1/gen_csa\[2\]\.FA0/ha1_sum
*675 M2/stage1/gen_csa\[2\]\.FA0/ha2_carry
*676 M2/stage1/gen_csa\[2\]\.FA1/ha1_carry
*677 M2/stage1/gen_csa\[2\]\.FA1/ha1_sum
*678 M2/stage1/gen_csa\[2\]\.FA1/ha2_carry
*679 M2/stage1/gen_csa\[3\]\.FA0/ha1_carry
*680 M2/stage1/gen_csa\[3\]\.FA0/ha1_sum
*681 M2/stage1/gen_csa\[3\]\.FA0/ha2_carry
*682 M2/stage1/gen_csa\[3\]\.FA1/ha1_carry
*683 M2/stage1/gen_csa\[3\]\.FA1/ha1_sum
*684 M2/stage1/gen_csa\[3\]\.FA1/ha2_carry
*685 M2/stage2/_00_
*686 M2/stage2/_01_
*687 M2/stage2/_02_
*688 M2/stage2/_03_
*689 M2/stage2/carry0[0]
*690 M2/stage2/carry0[1]
*691 M2/stage2/carry0[2]
*692 M2/stage2/carry0[3]
*693 M2/stage2/carry1[0]
*694 M2/stage2/carry1[1]
*695 M2/stage2/carry1[2]
*696 M2/stage2/carry1[3]
*697 M2/stage2/sum0[0]
*698 M2/stage2/sum0[1]
*699 M2/stage2/sum0[2]
*700 M2/stage2/sum0[3]
*701 M2/stage2/sum1[0]
*702 M2/stage2/sum1[1]
*703 M2/stage2/sum1[2]
*704 M2/stage2/sum1[3]
*705 M2/stage2/FA1_0/ha1_carry
*706 M2/stage2/FA1_0/ha1_sum
*707 M2/stage2/FA1_0/ha2_carry
*708 M2/stage2/gen_csa\[1\]\.FA0/ha1_carry
*709 M2/stage2/gen_csa\[1\]\.FA0/ha1_sum
*710 M2/stage2/gen_csa\[1\]\.FA0/ha2_carry
*711 M2/stage2/gen_csa\[1\]\.FA1/ha1_carry
*712 M2/stage2/gen_csa\[1\]\.FA1/ha1_sum
*713 M2/stage2/gen_csa\[1\]\.FA1/ha2_carry
*714 M2/stage2/gen_csa\[2\]\.FA0/ha1_carry
*715 M2/stage2/gen_csa\[2\]\.FA0/ha1_sum
*716 M2/stage2/gen_csa\[2\]\.FA0/ha2_carry
*717 M2/stage2/gen_csa\[2\]\.FA1/ha1_carry
*718 M2/stage2/gen_csa\[2\]\.FA1/ha1_sum
*719 M2/stage2/gen_csa\[2\]\.FA1/ha2_carry
*720 M2/stage2/gen_csa\[3\]\.FA0/ha1_carry
*721 M2/stage2/gen_csa\[3\]\.FA0/ha1_sum
*722 M2/stage2/gen_csa\[3\]\.FA0/ha2_carry
*723 M2/stage2/gen_csa\[3\]\.FA1/ha1_carry
*724 M2/stage2/gen_csa\[3\]\.FA1/ha1_sum
*725 M2/stage2/gen_csa\[3\]\.FA1/ha2_carry
*726 M2/stage3/_00_
*727 M2/stage3/_01_
*728 M2/stage3/_02_
*729 M2/stage3/_03_
*730 M2/stage3/carry0[0]
*731 M2/stage3/carry0[1]
*732 M2/stage3/carry0[2]
*733 M2/stage3/carry0[3]
*734 M2/stage3/carry1[0]
*735 M2/stage3/carry1[1]
*736 M2/stage3/carry1[2]
*737 M2/stage3/carry1[3]
*738 M2/stage3/sum0[0]
*739 M2/stage3/sum0[1]
*740 M2/stage3/sum0[2]
*741 M2/stage3/sum0[3]
*742 M2/stage3/sum1[0]
*743 M2/stage3/sum1[1]
*744 M2/stage3/sum1[2]
*745 M2/stage3/sum1[3]
*746 M2/stage3/FA1_0/ha1_carry
*747 M2/stage3/FA1_0/ha1_sum
*748 M2/stage3/FA1_0/ha2_carry
*749 M2/stage3/gen_csa\[1\]\.FA0/ha1_carry
*750 M2/stage3/gen_csa\[1\]\.FA0/ha1_sum
*751 M2/stage3/gen_csa\[1\]\.FA0/ha2_carry
*752 M2/stage3/gen_csa\[1\]\.FA1/ha1_carry
*753 M2/stage3/gen_csa\[1\]\.FA1/ha1_sum
*754 M2/stage3/gen_csa\[1\]\.FA1/ha2_carry
*755 M2/stage3/gen_csa\[2\]\.FA0/ha1_carry
*756 M2/stage3/gen_csa\[2\]\.FA0/ha1_sum
*757 M2/stage3/gen_csa\[2\]\.FA0/ha2_carry
*758 M2/stage3/gen_csa\[2\]\.FA1/ha1_carry
*759 M2/stage3/gen_csa\[2\]\.FA1/ha1_sum
*760 M2/stage3/gen_csa\[2\]\.FA1/ha2_carry
*761 M2/stage3/gen_csa\[3\]\.FA0/ha1_carry
*762 M2/stage3/gen_csa\[3\]\.FA0/ha1_sum
*763 M2/stage3/gen_csa\[3\]\.FA0/ha2_carry
*764 M2/stage3/gen_csa\[3\]\.FA1/ha1_carry
*765 M2/stage3/gen_csa\[3\]\.FA1/ha1_sum
*766 M2/stage3/gen_csa\[3\]\.FA1/ha2_carry
*767 M3/c1
*768 M3/c2
*769 M3/cnet
*770 M3/prodm0[2]
*771 M3/prodm0[3]
*772 M3/prodm1[0]
*773 M3/prodm1[1]
*774 M3/prodm1[2]
*775 M3/prodm1[3]
*776 M3/prodm2[0]
*777 M3/prodm2[1]
*778 M3/prodm2[2]
*779 M3/prodm2[3]
*780 M3/prodm3[0]
*781 M3/prodm3[1]
*782 M3/prodm3[2]
*783 M3/prodm3[3]
*784 M3/sums1[0]
*785 M3/sums1[1]
*786 M3/sums1[2]
*787 M3/sums1[3]
*788 M3/sums2[2]
*789 M3/sums2[3]
*790 M3/M0/a0b1
*791 M3/M0/a1b0
*792 M3/M0/a1b1
*793 M3/M0/carry
*794 M3/M1/a0b1
*795 M3/M1/a1b0
*796 M3/M1/a1b1
*797 M3/M1/carry
*798 M3/M2/a0b1
*799 M3/M2/a1b0
*800 M3/M2/a1b1
*801 M3/M2/carry
*802 M3/M3/a0b1
*803 M3/M3/a1b0
*804 M3/M3/a1b1
*805 M3/M3/carry
*806 M3/stage1/_00_
*807 M3/stage1/_01_
*808 M3/stage1/_02_
*809 M3/stage1/_03_
*810 M3/stage1/carry0[0]
*811 M3/stage1/carry0[1]
*812 M3/stage1/carry0[2]
*813 M3/stage1/carry0[3]
*814 M3/stage1/carry1[0]
*815 M3/stage1/carry1[1]
*816 M3/stage1/carry1[2]
*817 M3/stage1/carry1[3]
*818 M3/stage1/sum0[0]
*819 M3/stage1/sum0[1]
*820 M3/stage1/sum0[2]
*821 M3/stage1/sum0[3]
*822 M3/stage1/sum1[0]
*823 M3/stage1/sum1[1]
*824 M3/stage1/sum1[2]
*825 M3/stage1/sum1[3]
*826 M3/stage1/FA1_0/ha1_carry
*827 M3/stage1/FA1_0/ha1_sum
*828 M3/stage1/FA1_0/ha2_carry
*829 M3/stage1/gen_csa\[1\]\.FA0/ha1_carry
*830 M3/stage1/gen_csa\[1\]\.FA0/ha1_sum
*831 M3/stage1/gen_csa\[1\]\.FA0/ha2_carry
*832 M3/stage1/gen_csa\[1\]\.FA1/ha1_carry
*833 M3/stage1/gen_csa\[1\]\.FA1/ha1_sum
*834 M3/stage1/gen_csa\[1\]\.FA1/ha2_carry
*835 M3/stage1/gen_csa\[2\]\.FA0/ha1_carry
*836 M3/stage1/gen_csa\[2\]\.FA0/ha1_sum
*837 M3/stage1/gen_csa\[2\]\.FA0/ha2_carry
*838 M3/stage1/gen_csa\[2\]\.FA1/ha1_carry
*839 M3/stage1/gen_csa\[2\]\.FA1/ha1_sum
*840 M3/stage1/gen_csa\[2\]\.FA1/ha2_carry
*841 M3/stage1/gen_csa\[3\]\.FA0/ha1_carry
*842 M3/stage1/gen_csa\[3\]\.FA0/ha1_sum
*843 M3/stage1/gen_csa\[3\]\.FA0/ha2_carry
*844 M3/stage1/gen_csa\[3\]\.FA1/ha1_carry
*845 M3/stage1/gen_csa\[3\]\.FA1/ha1_sum
*846 M3/stage1/gen_csa\[3\]\.FA1/ha2_carry
*847 M3/stage2/_00_
*848 M3/stage2/_01_
*849 M3/stage2/_02_
*850 M3/stage2/_03_
*851 M3/stage2/carry0[0]
*852 M3/stage2/carry0[1]
*853 M3/stage2/carry0[2]
*854 M3/stage2/carry0[3]
*855 M3/stage2/carry1[0]
*856 M3/stage2/carry1[1]
*857 M3/stage2/carry1[2]
*858 M3/stage2/carry1[3]
*859 M3/stage2/sum0[0]
*860 M3/stage2/sum0[1]
*861 M3/stage2/sum0[2]
*862 M3/stage2/sum0[3]
*863 M3/stage2/sum1[0]
*864 M3/stage2/sum1[1]
*865 M3/stage2/sum1[2]
*866 M3/stage2/sum1[3]
*867 M3/stage2/FA1_0/ha1_carry
*868 M3/stage2/FA1_0/ha1_sum
*869 M3/stage2/FA1_0/ha2_carry
*870 M3/stage2/gen_csa\[1\]\.FA0/ha1_carry
*871 M3/stage2/gen_csa\[1\]\.FA0/ha1_sum
*872 M3/stage2/gen_csa\[1\]\.FA0/ha2_carry
*873 M3/stage2/gen_csa\[1\]\.FA1/ha1_carry
*874 M3/stage2/gen_csa\[1\]\.FA1/ha1_sum
*875 M3/stage2/gen_csa\[1\]\.FA1/ha2_carry
*876 M3/stage2/gen_csa\[2\]\.FA0/ha1_carry
*877 M3/stage2/gen_csa\[2\]\.FA0/ha1_sum
*878 M3/stage2/gen_csa\[2\]\.FA0/ha2_carry
*879 M3/stage2/gen_csa\[2\]\.FA1/ha1_carry
*880 M3/stage2/gen_csa\[2\]\.FA1/ha1_sum
*881 M3/stage2/gen_csa\[2\]\.FA1/ha2_carry
*882 M3/stage2/gen_csa\[3\]\.FA0/ha1_carry
*883 M3/stage2/gen_csa\[3\]\.FA0/ha1_sum
*884 M3/stage2/gen_csa\[3\]\.FA0/ha2_carry
*885 M3/stage2/gen_csa\[3\]\.FA1/ha1_carry
*886 M3/stage2/gen_csa\[3\]\.FA1/ha1_sum
*887 M3/stage2/gen_csa\[3\]\.FA1/ha2_carry
*888 M3/stage3/_00_
*889 M3/stage3/_01_
*890 M3/stage3/_02_
*891 M3/stage3/_03_
*892 M3/stage3/carry0[0]
*893 M3/stage3/carry0[1]
*894 M3/stage3/carry0[2]
*895 M3/stage3/carry0[3]
*896 M3/stage3/carry1[0]
*897 M3/stage3/carry1[1]
*898 M3/stage3/carry1[2]
*899 M3/stage3/carry1[3]
*900 M3/stage3/sum0[0]
*901 M3/stage3/sum0[1]
*902 M3/stage3/sum0[2]
*903 M3/stage3/sum0[3]
*904 M3/stage3/sum1[0]
*905 M3/stage3/sum1[1]
*906 M3/stage3/sum1[2]
*907 M3/stage3/sum1[3]
*908 M3/stage3/FA1_0/ha1_carry
*909 M3/stage3/FA1_0/ha1_sum
*910 M3/stage3/FA1_0/ha2_carry
*911 M3/stage3/gen_csa\[1\]\.FA0/ha1_carry
*912 M3/stage3/gen_csa\[1\]\.FA0/ha1_sum
*913 M3/stage3/gen_csa\[1\]\.FA0/ha2_carry
*914 M3/stage3/gen_csa\[1\]\.FA1/ha1_carry
*915 M3/stage3/gen_csa\[1\]\.FA1/ha1_sum
*916 M3/stage3/gen_csa\[1\]\.FA1/ha2_carry
*917 M3/stage3/gen_csa\[2\]\.FA0/ha1_carry
*918 M3/stage3/gen_csa\[2\]\.FA0/ha1_sum
*919 M3/stage3/gen_csa\[2\]\.FA0/ha2_carry
*920 M3/stage3/gen_csa\[2\]\.FA1/ha1_carry
*921 M3/stage3/gen_csa\[2\]\.FA1/ha1_sum
*922 M3/stage3/gen_csa\[2\]\.FA1/ha2_carry
*923 M3/stage3/gen_csa\[3\]\.FA0/ha1_carry
*924 M3/stage3/gen_csa\[3\]\.FA0/ha1_sum
*925 M3/stage3/gen_csa\[3\]\.FA0/ha2_carry
*926 M3/stage3/gen_csa\[3\]\.FA1/ha1_carry
*927 M3/stage3/gen_csa\[3\]\.FA1/ha1_sum
*928 M3/stage3/gen_csa\[3\]\.FA1/ha2_carry
*929 stage1/_00_
*930 stage1/_01_
*931 stage1/_02_
*932 stage1/_03_
*933 stage1/_04_
*934 stage1/_05_
*935 stage1/_06_
*936 stage1/_07_
*937 stage1/carry0[0]
*938 stage1/carry0[1]
*939 stage1/carry0[2]
*940 stage1/carry0[3]
*941 stage1/carry0[4]
*942 stage1/carry0[5]
*943 stage1/carry0[6]
*944 stage1/carry0[7]
*945 stage1/carry1[0]
*946 stage1/carry1[1]
*947 stage1/carry1[2]
*948 stage1/carry1[3]
*949 stage1/carry1[4]
*950 stage1/carry1[5]
*951 stage1/carry1[6]
*952 stage1/carry1[7]
*953 stage1/sum0[0]
*954 stage1/sum0[1]
*955 stage1/sum0[2]
*956 stage1/sum0[3]
*957 stage1/sum0[4]
*958 stage1/sum0[5]
*959 stage1/sum0[6]
*960 stage1/sum0[7]
*961 stage1/sum1[0]
*962 stage1/sum1[1]
*963 stage1/sum1[2]
*964 stage1/sum1[3]
*965 stage1/sum1[4]
*966 stage1/sum1[5]
*967 stage1/sum1[6]
*968 stage1/sum1[7]
*969 stage1/FA1_0/ha1_carry
*970 stage1/FA1_0/ha1_sum
*971 stage1/FA1_0/ha2_carry
*972 stage1/gen_csa\[1\]\.FA0/ha1_carry
*973 stage1/gen_csa\[1\]\.FA0/ha1_sum
*974 stage1/gen_csa\[1\]\.FA0/ha2_carry
*975 stage1/gen_csa\[1\]\.FA1/ha1_carry
*976 stage1/gen_csa\[1\]\.FA1/ha1_sum
*977 stage1/gen_csa\[1\]\.FA1/ha2_carry
*978 stage1/gen_csa\[2\]\.FA0/ha1_carry
*979 stage1/gen_csa\[2\]\.FA0/ha1_sum
*980 stage1/gen_csa\[2\]\.FA0/ha2_carry
*981 stage1/gen_csa\[2\]\.FA1/ha1_carry
*982 stage1/gen_csa\[2\]\.FA1/ha1_sum
*983 stage1/gen_csa\[2\]\.FA1/ha2_carry
*984 stage1/gen_csa\[3\]\.FA0/ha1_carry
*985 stage1/gen_csa\[3\]\.FA0/ha1_sum
*986 stage1/gen_csa\[3\]\.FA0/ha2_carry
*987 stage1/gen_csa\[3\]\.FA1/ha1_carry
*988 stage1/gen_csa\[3\]\.FA1/ha1_sum
*989 stage1/gen_csa\[3\]\.FA1/ha2_carry
*990 stage1/gen_csa\[4\]\.FA0/ha1_carry
*991 stage1/gen_csa\[4\]\.FA0/ha1_sum
*992 stage1/gen_csa\[4\]\.FA0/ha2_carry
*993 stage1/gen_csa\[4\]\.FA1/ha1_carry
*994 stage1/gen_csa\[4\]\.FA1/ha1_sum
*995 stage1/gen_csa\[4\]\.FA1/ha2_carry
*996 stage1/gen_csa\[5\]\.FA0/ha1_carry
*997 stage1/gen_csa\[5\]\.FA0/ha1_sum
*998 stage1/gen_csa\[5\]\.FA0/ha2_carry
*999 stage1/gen_csa\[5\]\.FA1/ha1_carry
*1000 stage1/gen_csa\[5\]\.FA1/ha1_sum
*1001 stage1/gen_csa\[5\]\.FA1/ha2_carry
*1002 stage1/gen_csa\[6\]\.FA0/ha1_carry
*1003 stage1/gen_csa\[6\]\.FA0/ha1_sum
*1004 stage1/gen_csa\[6\]\.FA0/ha2_carry
*1005 stage1/gen_csa\[6\]\.FA1/ha1_carry
*1006 stage1/gen_csa\[6\]\.FA1/ha1_sum
*1007 stage1/gen_csa\[6\]\.FA1/ha2_carry
*1008 stage1/gen_csa\[7\]\.FA0/ha1_carry
*1009 stage1/gen_csa\[7\]\.FA0/ha1_sum
*1010 stage1/gen_csa\[7\]\.FA0/ha2_carry
*1011 stage1/gen_csa\[7\]\.FA1/ha1_carry
*1012 stage1/gen_csa\[7\]\.FA1/ha1_sum
*1013 stage1/gen_csa\[7\]\.FA1/ha2_carry
*1014 stage2/_00_
*1015 stage2/_01_
*1016 stage2/_02_
*1017 stage2/_03_
*1018 stage2/_04_
*1019 stage2/_05_
*1020 stage2/_06_
*1021 stage2/_07_
*1022 stage2/carry0[0]
*1023 stage2/carry0[1]
*1024 stage2/carry0[2]
*1025 stage2/carry0[3]
*1026 stage2/carry0[4]
*1027 stage2/carry0[5]
*1028 stage2/carry0[6]
*1029 stage2/carry0[7]
*1030 stage2/carry1[0]
*1031 stage2/carry1[1]
*1032 stage2/carry1[2]
*1033 stage2/carry1[3]
*1034 stage2/carry1[4]
*1035 stage2/carry1[5]
*1036 stage2/carry1[6]
*1037 stage2/carry1[7]
*1038 stage2/sum0[0]
*1039 stage2/sum0[1]
*1040 stage2/sum0[2]
*1041 stage2/sum0[3]
*1042 stage2/sum0[4]
*1043 stage2/sum0[5]
*1044 stage2/sum0[6]
*1045 stage2/sum0[7]
*1046 stage2/sum1[0]
*1047 stage2/sum1[1]
*1048 stage2/sum1[2]
*1049 stage2/sum1[3]
*1050 stage2/sum1[4]
*1051 stage2/sum1[5]
*1052 stage2/sum1[6]
*1053 stage2/sum1[7]
*1054 stage2/FA1_0/ha1_carry
*1055 stage2/FA1_0/ha1_sum
*1056 stage2/FA1_0/ha2_carry
*1057 stage2/gen_csa\[1\]\.FA0/ha1_carry
*1058 stage2/gen_csa\[1\]\.FA0/ha1_sum
*1059 stage2/gen_csa\[1\]\.FA0/ha2_carry
*1060 stage2/gen_csa\[1\]\.FA1/ha1_carry
*1061 stage2/gen_csa\[1\]\.FA1/ha1_sum
*1062 stage2/gen_csa\[1\]\.FA1/ha2_carry
*1063 stage2/gen_csa\[2\]\.FA0/ha1_carry
*1064 stage2/gen_csa\[2\]\.FA0/ha1_sum
*1065 stage2/gen_csa\[2\]\.FA0/ha2_carry
*1066 stage2/gen_csa\[2\]\.FA1/ha1_carry
*1067 stage2/gen_csa\[2\]\.FA1/ha1_sum
*1068 stage2/gen_csa\[2\]\.FA1/ha2_carry
*1069 stage2/gen_csa\[3\]\.FA0/ha1_carry
*1070 stage2/gen_csa\[3\]\.FA0/ha1_sum
*1071 stage2/gen_csa\[3\]\.FA0/ha2_carry
*1072 stage2/gen_csa\[3\]\.FA1/ha1_carry
*1073 stage2/gen_csa\[3\]\.FA1/ha1_sum
*1074 stage2/gen_csa\[3\]\.FA1/ha2_carry
*1075 stage2/gen_csa\[4\]\.FA0/ha1_carry
*1076 stage2/gen_csa\[4\]\.FA0/ha1_sum
*1077 stage2/gen_csa\[4\]\.FA0/ha2_carry
*1078 stage2/gen_csa\[4\]\.FA1/ha1_carry
*1079 stage2/gen_csa\[4\]\.FA1/ha1_sum
*1080 stage2/gen_csa\[4\]\.FA1/ha2_carry
*1081 stage2/gen_csa\[5\]\.FA0/ha1_carry
*1082 stage2/gen_csa\[5\]\.FA0/ha1_sum
*1083 stage2/gen_csa\[5\]\.FA0/ha2_carry
*1084 stage2/gen_csa\[5\]\.FA1/ha1_carry
*1085 stage2/gen_csa\[5\]\.FA1/ha1_sum
*1086 stage2/gen_csa\[5\]\.FA1/ha2_carry
*1087 stage2/gen_csa\[6\]\.FA0/ha1_carry
*1088 stage2/gen_csa\[6\]\.FA0/ha1_sum
*1089 stage2/gen_csa\[6\]\.FA0/ha2_carry
*1090 stage2/gen_csa\[6\]\.FA1/ha1_carry
*1091 stage2/gen_csa\[6\]\.FA1/ha1_sum
*1092 stage2/gen_csa\[6\]\.FA1/ha2_carry
*1093 stage2/gen_csa\[7\]\.FA0/ha1_carry
*1094 stage2/gen_csa\[7\]\.FA0/ha1_sum
*1095 stage2/gen_csa\[7\]\.FA0/ha2_carry
*1096 stage2/gen_csa\[7\]\.FA1/ha1_carry
*1097 stage2/gen_csa\[7\]\.FA1/ha1_sum
*1098 stage2/gen_csa\[7\]\.FA1/ha2_carry
*1099 stage3/_00_
*1100 stage3/_01_
*1101 stage3/_02_
*1102 stage3/_03_
*1103 stage3/_04_
*1104 stage3/_05_
*1105 stage3/_06_
*1106 stage3/_07_
*1107 stage3/carry0[0]
*1108 stage3/carry0[1]
*1109 stage3/carry0[2]
*1110 stage3/carry0[3]
*1111 stage3/carry0[4]
*1112 stage3/carry0[5]
*1113 stage3/carry0[6]
*1114 stage3/carry0[7]
*1115 stage3/carry1[0]
*1116 stage3/carry1[1]
*1117 stage3/carry1[2]
*1118 stage3/carry1[3]
*1119 stage3/carry1[4]
*1120 stage3/carry1[5]
*1121 stage3/carry1[6]
*1122 stage3/carry1[7]
*1123 stage3/sum0[0]
*1124 stage3/sum0[1]
*1125 stage3/sum0[2]
*1126 stage3/sum0[3]
*1127 stage3/sum0[4]
*1128 stage3/sum0[5]
*1129 stage3/sum0[6]
*1130 stage3/sum0[7]
*1131 stage3/sum1[0]
*1132 stage3/sum1[1]
*1133 stage3/sum1[2]
*1134 stage3/sum1[3]
*1135 stage3/sum1[4]
*1136 stage3/sum1[5]
*1137 stage3/sum1[6]
*1138 stage3/sum1[7]
*1139 stage3/FA1_0/ha1_carry
*1140 stage3/FA1_0/ha1_sum
*1141 stage3/FA1_0/ha2_carry
*1142 stage3/gen_csa\[1\]\.FA0/ha1_carry
*1143 stage3/gen_csa\[1\]\.FA0/ha1_sum
*1144 stage3/gen_csa\[1\]\.FA0/ha2_carry
*1145 stage3/gen_csa\[1\]\.FA1/ha1_carry
*1146 stage3/gen_csa\[1\]\.FA1/ha1_sum
*1147 stage3/gen_csa\[1\]\.FA1/ha2_carry
*1148 stage3/gen_csa\[2\]\.FA0/ha1_carry
*1149 stage3/gen_csa\[2\]\.FA0/ha1_sum
*1150 stage3/gen_csa\[2\]\.FA0/ha2_carry
*1151 stage3/gen_csa\[2\]\.FA1/ha1_carry
*1152 stage3/gen_csa\[2\]\.FA1/ha1_sum
*1153 stage3/gen_csa\[2\]\.FA1/ha2_carry
*1154 stage3/gen_csa\[3\]\.FA0/ha1_carry
*1155 stage3/gen_csa\[3\]\.FA0/ha1_sum
*1156 stage3/gen_csa\[3\]\.FA0/ha2_carry
*1157 stage3/gen_csa\[3\]\.FA1/ha1_carry
*1158 stage3/gen_csa\[3\]\.FA1/ha1_sum
*1159 stage3/gen_csa\[3\]\.FA1/ha2_carry
*1160 stage3/gen_csa\[4\]\.FA0/ha1_carry
*1161 stage3/gen_csa\[4\]\.FA0/ha1_sum
*1162 stage3/gen_csa\[4\]\.FA0/ha2_carry
*1163 stage3/gen_csa\[4\]\.FA1/ha1_carry
*1164 stage3/gen_csa\[4\]\.FA1/ha1_sum
*1165 stage3/gen_csa\[4\]\.FA1/ha2_carry
*1166 stage3/gen_csa\[5\]\.FA0/ha1_carry
*1167 stage3/gen_csa\[5\]\.FA0/ha1_sum
*1168 stage3/gen_csa\[5\]\.FA0/ha2_carry
*1169 stage3/gen_csa\[5\]\.FA1/ha1_carry
*1170 stage3/gen_csa\[5\]\.FA1/ha1_sum
*1171 stage3/gen_csa\[5\]\.FA1/ha2_carry
*1172 stage3/gen_csa\[6\]\.FA0/ha1_carry
*1173 stage3/gen_csa\[6\]\.FA0/ha1_sum
*1174 stage3/gen_csa\[6\]\.FA0/ha2_carry
*1175 stage3/gen_csa\[6\]\.FA1/ha1_carry
*1176 stage3/gen_csa\[6\]\.FA1/ha1_sum
*1177 stage3/gen_csa\[6\]\.FA1/ha2_carry